.MODEL MJE3055T NPN (
+ IS=1.06E-13 BF=85.7 NF=1.004 VAF=48.6
+ IKF=5.19 ISE=2.35E-11 NE=1.44
+ BR=1.28 NR=1.004 VAR=20.0 IKR=0.30
+ ISC=4.56E-13 NC=1.28
+ RB=0.10 RBM=0.10 RE=0.0001 RC=0.0001
+ CJE=1.00E-9 VJE=0.75 MJE=0.33
+ TF=3.5E-8 XTF=3.0 VTF=10.0 ITF=1.0
+ CJC=6.82E-10 VJC=0.40 MJC=0.33
+ TR=1.0E-7 )